data_image0
_chemical_formula_structural       LiO2He3
_chemical_formula_sum              "Li1 O2 He3"
_cell_length_a       2.90534526
_cell_length_b       2.90534526
_cell_length_c       14.40185426
_cell_angle_alpha    90.0
_cell_angle_beta     90.0
_cell_angle_gamma    119.99999999999999

_space_group_name_H-M_alt    "P 1"
_space_group_IT_number       1

loop_
  _space_group_symop_operation_xyz
  'x, y, z'

loop_
  _atom_site_type_symbol
  _atom_site_label
  _atom_site_symmetry_multiplicity
  _atom_site_fract_x
  _atom_site_fract_y
  _atom_site_fract_z
  _atom_site_occupancy
  Li  Li1       1.0  0.3333333299999999  0.6666666699999999  0.16666667000000004  1.0000
  O   O1        1.0  0.66666667  0.3333333299999999  0.075577  1.0000
  O   O2        1.0  0.0  0.0  0.25775633  1.0000
  He  He1       1.0  0.33333332500000007  0.6666666699999999  0.16666667000000004  1.0000
  He  He2       1.0  0.6666666649999997  0.3333333399999998  0.16666667000000004  1.0000
  He  He3       1.0  0.3333333299999999  0.6666666699999999  0.3333333400000001  1.0000
